DEBUT(LANG='FR')


tstep = 0.0002

coeff_friction = 0.0

e_n = 1E3

e_t = 1E1

inst_final = 25e-3

pene_maxi = 1e-3

store_step = tstep

iter_glob_maxi = 12

mesh = LIRE_MAILLAGE(identifier='8:1',
                     FORMAT='MED',
                     UNITE=3)

mesh = MODI_MAILLAGE(identifier='9:1',
                     reuse=mesh,
                     MAILLAGE=mesh,
                     ORIE_PEAU=(_F(GROUP_MA_INTERNE=('PISTON_ALL', ),
                                   GROUP_MA_PEAU=('PISTON_CONT_PIN1', 'PISTON_CONT_PIN2', 'PISTON_PRESS', 'PISTON_SKIRT')),
                                _F(GROUP_MA_INTERNE=('CRANK_ALL', ),
                                   GROUP_MA_PEAU=('CRANK_CONT_CONROD', 'CRANK_BEAR1', 'CRANK_BEAR2', 'CRANK_side')),
                                _F(GROUP_MA_INTERNE=('CONROD_ALL', ),
                                   GROUP_MA_PEAU=('CONROD_CONT_CRANK', 'CONROD_CONT_PIN', 'CONROD_side')),
                                _F(GROUP_MA_INTERNE=('PIN_ALL', ),
                                   GROUP_MA_PEAU=('PIN_CONT_PISTON1', 'PIN_CONT_PISTON2', 'PIN_CONT_CONROD', 'PIN_side')),
                                _F(GROUP_MA_INTERNE=('MAINBEAR1_ALL', ),
                                   GROUP_MA_PEAU=('MAINBEAR1_FIX', 'MAINBEAR1_CONT_BEAR1')),
                                _F(GROUP_MA_INTERNE=('MAINBEAR2_ALL', ),
                                   GROUP_MA_PEAU=('MAINBEAR2_CONT_BEAR2', 'MAINBEAR2_FIX'))))

model = AFFE_MODELE(identifier='10:1',
                    AFFE=_F(MODELISATION='3D',
                            PHENOMENE='MECANIQUE',
                            TOUT='OUI'),
                    DISTRIBUTION=_F(METHODE='CENTRALISE'),
                    MAILLAGE=mesh)

steel_E = DEFI_CONSTANTE(identifier='11:1',
                         VALE=210000.0)

steel_NU = DEFI_CONSTANTE(identifier='12:1',
                          VALE=0.3)

steel_RHO = DEFI_CONSTANTE(identifier='13:1',
                           VALE=7.85e-09)

steel = DEFI_MATERIAU(identifier='14:1',
                      ECRO_LINE=_F(D_SIGM_EPSI=1100.0,
                                   SIGM_LIM=1200.0,
                                   SY=900.0),
                      ELAS_FO=_F(E=steel_E,
                                 NU=steel_NU,
                                 RHO=steel_RHO))

alu_E = DEFI_CONSTANTE(identifier='15:1',
                       VALE=68000.0)

alu_NU = DEFI_CONSTANTE(identifier='16:1',
                        VALE=0.3)

alu_RHO = DEFI_CONSTANTE(identifier='17:1',
                         VALE=2.7e-09)

alumin = DEFI_MATERIAU(identifier='18:1',
                       ECRO_LINE=_F(D_SIGM_EPSI=200.0,
                                    SIGM_LIM=340.0,
                                    SY=250.0),
                       ELAS_FO=_F(E=alu_E,
                                  NU=alu_NU,
                                  RHO=alu_RHO))

fieldmat = AFFE_MATERIAU(identifier='19:1',
                         AFFE=(_F(MATER=(steel, ),
                                  TOUT='OUI'),
                               _F(GROUP_MA=('PISTON_ALL', ),
                                  MATER=(alumin, ))),
                         MODELE=model)

PRESS_func = DEFI_FONCTION(identifier='20:1',
                           INTERPOL=('LIN', ),
                           NOM_PARA='INST',
                           PROL_DROITE='CONSTANT',
                           PROL_GAUCHE='CONSTANT',
                           VALE=(0.0, 0.0, 0.001, 9.0, 0.002, 12.0, 0.003, 6.0, 0.004, 1.0, 0.005, 0.0, 0.006, 0.0, 0.007, 0.0, 0.008, 0.0, 0.009, 0.0, 0.01, 0.0, 0.011, 0.0, 0.012, 0.0, 0.013, 0.0, 0.014, 0.0, 0.015, 0.0, 0.016, 0.3, 0.017, 0.27, 0.018, 0.2, 0.019, 0.1, 0.02, 0.0))

#comment: listr1 = DEFI_LIST_REEL(identifier='21:1',
#comment:                         DEBUT=0.0,
#comment:                         INTERVALLE=_F(JUSQU_A=0.03,
#comment:                                       PAS=tstep))

#comment: times = DEFI_LIST_INST(identifier='22:1',
#comment:                        DEFI_LIST=_F(LIST_INST=listr1),
#comment:                        ECHEC=(_F(ACTION='DECOUPE',
#comment:                                  EVENEMENT='ERREUR',
#comment:                                  SUBD_NIVEAU=3),
#comment:                               _F(ACTION='ADAPT_COEF_PENA',
#comment:                                  COEF_MAXI=100000000.0,
#comment:                                  EVENEMENT='INTERPENETRATION',
#comment:                                  PENE_MAXI=pene_maxi)))

listr2 = DEFI_LIST_REEL(identifier='23:1',
                        VALE=(0.0, 0.0002, 0.00020078125, 0.00020234375000000002, 0.00020546875, 0.00021171875000000002, 0.00022421875, 0.00024921875, 0.00029921875, 0.0004, 0.00040078125000000004, 0.00040234375000000003, 0.00040546875, 0.00041171875000000003, 0.00042421875, 0.00044921875, 0.00049921875, 0.0006000000000000001, 0.0006007812500000001, 0.00060234375, 0.0006054687500000001, 0.00061171

times1 = DEFI_LIST_INST(identifier='24:1',
                        ADAPTATION=_F(EVENEMENT='TOUT_INST',
                                      MODE_CALCUL_TPLUS='FIXE',
                                      PCENT_AUGM=100.0),
                        DEFI_LIST=_F(LIST_INST=listr2),
                        METHODE='AUTO')

list_store = DEFI_LIST_REEL(identifier='25:1',
                            DEBUT=0.0,
                            INTERVALLE=_F(JUSQU_A=inst_final,
                                          PAS=store_step))

PRESS = AFFE_CHAR_MECA_F(identifier='26:1',
                         MODELE=model,
                         PRES_REP=_F(GROUP_MA=('PISTON_PRESS', ),
                                     PRES=PRESS_func))

FIX = AFFE_CHAR_MECA(identifier='27:1',
                     FACE_IMPO=(_F(DX=0.0,
                                   DY=0.0,
                                   GROUP_MA=('PISTON_SKIRT', )),
                                _F(DY=0.0,
                                   GROUP_MA=('CONROD_side', )),
                                _F(DY=0.0,
                                   GROUP_MA=('PIN_side', )),
                                _F(DY=0.0,
                                   GROUP_MA=('CRANK_side', )),
                                _F(DX=0.0,
                                   DY=0.0,
                                   DZ=0.0,
                                   GROUP_MA=('MAINBEAR1_FIX', 'MAINBEAR2_FIX'))),
                     MODELE=model)

contact = DEFI_CONTACT(identifier='28:1',
                       FORMULATION='DISCRETE',
                       FROTTEMENT='COULOMB',
                       LISSAGE='OUI',
                       MODELE=model,
                       ZONE=(_F(ALGO_CONT='PENALISATION',
                                COULOMB=coeff_friction,
                                E_N=e_n,
                                E_T=e_t,
                                GROUP_MA_ESCL=('PISTON_CONT_PIN1', ),
                                GROUP_MA_MAIT=('PIN_CONT_PISTON1', ),
                                NORMALE='MAIT',
                                TYPE_PROJECTION='ORTHOGONALE'),
                             _F(ALGO_CONT='PENALISATION',
                                COULOMB=coeff_friction,
                                E_N=e_n,
                                E_T=e_t,
                                GROUP_MA_ESCL=('PISTON_CONT_PIN2', ),
                                GROUP_MA_MAIT=('PIN_CONT_PISTON2', ),
                                NORMALE='MAIT',
                                TYPE_PROJECTION='ORTHOGONALE'),
                             _F(ALGO_CONT='PENALISATION',
                                COULOMB=coeff_friction,
                                E_N=e_n,
                                E_T=e_t,
                                GROUP_MA_ESCL=('PIN_CONT_CONROD', ),
                                GROUP_MA_MAIT=('CONROD_CONT_PIN', ),
                                NORMALE='MAIT',
                                TYPE_PROJECTION='ORTHOGONALE'),
                             _F(ALGO_CONT='PENALISATION',
                                COULOMB=coeff_friction,
                                E_N=e_n,
                                E_T=e_t,
                                GROUP_MA_ESCL=('CONROD_CONT_CRANK', ),
                                GROUP_MA_MAIT=('CRANK_CONT_CONROD', ),
                                NORMALE='MAIT',
                                TYPE_PROJECTION='ORTHOGONALE'),
                             _F(ALGO_CONT='PENALISATION',
                                COULOMB=coeff_friction,
                                E_N=e_n,
                                E_T=e_t,
                                GROUP_MA_ESCL=('CRANK_BEAR1', ),
                                GROUP_MA_MAIT=('MAINBEAR1_CONT_BEAR1', ),
                                NORMALE='MAIT',
                                TYPE_PROJECTION='ORTHOGONALE'),
                             _F(ALGO_CONT='PENALISATION',
                                COULOMB=coeff_friction,
                                E_N=e_n,
                                E_T=e_t,
                                GROUP_MA_ESCL=('CRANK_BEAR2', ),
                                GROUP_MA_MAIT=('MAINBEAR2_CONT_BEAR2', ),
                                NORMALE='MAIT',
                                TYPE_PROJECTION='ORTHOGONALE')))

resnonl = DYNA_NON_LINE(identifier='29:1',
                        ARCHIVAGE=_F(LIST_INST=list_store),
                        CHAM_MATER=fieldmat,
                        COMPORTEMENT=_F(DEFORMATION='SIMO_MIEHE',
                                        RELATION='VMIS_ISOT_LINE',
                                        TOUT='OUI'),
                        CONTACT=contact,
                        CONVERGENCE=_F(ITER_GLOB_MAXI=iter_glob_maxi,
                                       RESI_GLOB_RELA=1e-06),
                        EXCIT=(_F(CHARGE=PRESS),
                               _F(CHARGE=FIX)),
                        INCREMENT=_F(INST_FIN=inst_final,
                                     LIST_INST=times1),
                        MODELE=model,
                        NEWTON=_F(MATRICE='TANGENTE',
                                  PREDICTION='TANGENTE'),
                        SCHEMA_TEMPS=_F(ALPHA=-0.3,
                                        FORMULATION='DEPLACEMENT',
                                        SCHEMA='HHT'),
                        SOLVEUR=_F(METHODE='PETSC'))

IMPR_RESU(identifier='30:1',
          FORMAT='MED',
          RESU=_F(RESULTAT=resnonl),
          UNITE=80)

FIN()